REMARK  1 active torsions:
REMARK  status: ('A' for Active; 'I' for Inactive)
REMARK    1  A    between atoms: N_2  and  C_4 
ROOT
HETATM    1  C   UNL     1       1.126   0.004  -0.075  1.00  0.00     0.151 C 
HETATM    2  N   UNL     1       2.574   0.016  -0.056  1.00  0.00    -0.368 N 
HETATM    3  C   UNL     1       3.283   0.756   0.967  1.00  0.00     0.151 C 
ENDROOT
BRANCH   2   4
HETATM    4  C   UNL     1       3.295  -0.671  -1.011  1.00  0.00     0.350 C 
HETATM    5  O   UNL     1       4.516  -0.721  -1.082  1.00  0.00    -0.284 OA
ENDBRANCH   2   4
TORSDOF 1
