REMARK  1 active torsions:
REMARK  status: ('A' for Active; 'I' for Inactive)
REMARK    1  A    between atoms: C_2  and  O_3 
ROOT
HETATM    1  C   UNL     1       1.017  -0.032   0.092  1.00  0.00     0.033 C 
HETATM    2  C   UNL     1       2.531  -0.026   0.095  1.00  0.00     0.159 C 
ENDROOT
BRANCH   2   3
HETATM    3  O   UNL     1       3.013   0.734   1.193  1.00  0.00    -0.401 OA
HETATM    4  H   UNL     1       2.673   1.640   1.094  1.00  0.00     0.209 HD
ENDBRANCH   2   3
TORSDOF 1
