REMARK  0 active torsions:
REMARK  status: ('A' for Active; 'I' for Inactive)
ROOT
HETATM    1  C   UNL     1      -1.421   0.328  -0.221  1.00  0.00     0.000 C 
HETATM    2  C   UNL     1      -0.991  -1.065   0.234  1.00  0.00     0.000 C 
HETATM    3  C   UNL     1       0.425  -1.390  -0.234  1.00  0.00     0.000 C 
HETATM    4  C   UNL     1       1.420  -0.328   0.226  1.00  0.00     0.000 C 
HETATM    5  C   UNL     1       0.994   1.066  -0.227  1.00  0.00     0.000 C 
HETATM    6  C   UNL     1      -0.425   1.393   0.231  1.00  0.00     0.000 C 
ENDROOT
TORSDOF 0
