REMARK  0 active torsions:
REMARK  status: ('A' for Active; 'I' for Inactive)
REMARK       I    between atoms: C_1  and  N_3 
REMARK       I    between atoms: C_1  and  N_4 
ROOT
HETATM    1  C   UNL     1       0.937  -0.041   0.074  1.00  0.00     0.311 C 
HETATM    2  O   UNL     1       0.327  -1.082  -0.113  1.00  0.00    -0.248 OA
HETATM    3  N   UNL     1       0.325   1.138   0.286  1.00  0.00    -0.352 N 
HETATM    4  N   UNL     1       2.281   0.026   0.086  1.00  0.00    -0.352 N 
HETATM    5  H   UNL     1      -0.686   1.143   0.287  1.00  0.00     0.160 HD
HETATM    6  H   UNL     1       0.822   1.999   0.441  1.00  0.00     0.160 HD
HETATM    7  H   UNL     1       2.791  -0.833  -0.068  1.00  0.00     0.160 HD
HETATM    8  H   UNL     1       2.790   0.880   0.240  1.00  0.00     0.160 HD
ENDROOT
TORSDOF 0
