REMARK  0 active torsions:
REMARK  status: ('A' for Active; 'I' for Inactive)
ROOT
HETATM    1  C   UNL     1       1.042  -0.109   0.006  1.00  0.00     0.090 C 
HETATM    2  C   UNL     1       2.546  -0.083   0.025  1.00  0.00     0.119 C 
HETATM    3  O   UNL     1       3.166   0.777   0.651  1.00  0.00    -0.299 OA
HETATM    4  C   UNL     1       3.270  -1.150  -0.751  1.00  0.00     0.090 C 
ENDROOT
TORSDOF 0
