REMARK  1 active torsions:
REMARK  status: ('A' for Active; 'I' for Inactive)
REMARK    1  A    between atoms: C_2  and  O_4 
ROOT
HETATM    1  C   UNL     1       0.949  -0.055   0.059  1.00  0.00     0.039 C 
HETATM    2  C   UNL     1       2.470  -0.084   0.050  1.00  0.00     0.110 C 
HETATM    3  C   UNL     1       3.005  -1.468  -0.281  1.00  0.00     0.039 C 
ENDROOT
BRANCH   2   4
HETATM    4  O   UNL     1       2.952   0.849  -0.911  1.00  0.00    -0.396 OA
HETATM    5  H   UNL     1       2.621   0.577  -1.784  1.00  0.00     0.209 HD
ENDBRANCH   2   4
TORSDOF 1
