REMARK  1 active torsions:
REMARK  status: ('A' for Active; 'I' for Inactive)
REMARK    1  A    between atoms: C_2  and  C_3 
ROOT
HETATM    1  C   UNL     1       3.059   0.544   1.234  1.00  0.00     0.002 A 
HETATM    2  C   UNL     1       2.613   0.203   2.513  1.00  0.00     0.014 A 
HETATM    3  C   UNL     1       3.389   0.530   3.626  1.00  0.00     0.001 A 
HETATM    4  C   UNL     1       4.602   1.198   3.458  1.00  0.00     0.000 A 
HETATM    5  C   UNL     1       5.041   1.547   2.179  1.00  0.00     0.001 A 
HETATM    6  C   UNL     1       4.270   1.221   1.062  1.00  0.00     0.014 A 
ENDROOT
BRANCH   1   7
HETATM    7  C   UNL     1       2.258   0.181   0.048  1.00  0.00     0.269 C 
HETATM    8  O   UNL     1       1.195  -0.420   0.135  1.00  0.00    -0.301 OA
ENDBRANCH   1   7
TORSDOF 1
