REMARK  0 active torsions:
REMARK  status: ('A' for Active; 'I' for Inactive)
ROOT
HETATM    1  C   UNL     1       1.383  -0.221   0.005  1.00  0.00     0.000 A 
HETATM    2  C   UNL     1       0.507  -1.307  -0.008  1.00  0.00     0.000 A 
HETATM    3  C   UNL     1      -0.871  -1.091  -0.015  1.00  0.00     0.000 A 
HETATM    4  C   UNL     1      -1.373   0.211  -0.004  1.00  0.00     0.000 A 
HETATM    5  C   UNL     1      -0.497   1.296   0.011  1.00  0.00     0.000 A 
HETATM    6  C   UNL     1       0.881   1.080   0.014  1.00  0.00     0.000 A 
ENDROOT
TORSDOF 0
