REMARK  0 active torsions:
REMARK  status: ('A' for Active; 'I' for Inactive)
REMARK       I    between atoms: C_2  and  N_3 
ROOT
HETATM    1  C   UNL     1       1.136   0.015  -0.093  1.00  0.00     0.117 C 
HETATM    2  C   UNL     1       2.638  -0.010  -0.063  1.00  0.00     0.211 C 
HETATM    3  N   UNL     1       3.258   0.753  -1.005  1.00  0.00    -0.370 N 
HETATM    4  O   UNL     1       3.281  -0.666   0.747  1.00  0.00    -0.274 OA
HETATM    5  H   UNL     1       2.763   1.307  -1.689  1.00  0.00     0.159 HD
HETATM    6  H   UNL     1       4.269   0.758  -1.011  1.00  0.00     0.159 HD
ENDROOT
TORSDOF 0
