REMARK  0 active torsions:
REMARK  status: ('A' for Active; 'I' for Inactive)
ROOT
HETATM    1  C   UNL     1       1.034   0.083   0.028  1.00  0.00     0.081 C 
HETATM    2  C   UNL     1       2.530   0.064  -0.000  1.00  0.00     0.226 C 
HETATM    3  O   UNL     1       3.177  -0.515  -0.867  1.00  0.00    -0.307 OA
ENDROOT
TORSDOF 0
