REMARK  1 active torsions:
REMARK  status: ('A' for Active; 'I' for Inactive)
REMARK    1  A    between atoms: C_4  and  O_7 
ROOT
HETATM    1  C   UNL     1      -1.875   0.037  -0.007  1.00  0.00     0.000 A 
HETATM    2  C   UNL     1      -1.196  -1.183  -0.002  1.00  0.00     0.003 A 
HETATM    3  C   UNL     1       0.200  -1.207   0.007  1.00  0.00     0.036 A 
HETATM    4  C   UNL     1       0.904  -0.006   0.012  1.00  0.00     0.065 A 
HETATM    5  C   UNL     1       0.234   1.213   0.011  1.00  0.00     0.036 A 
HETATM    6  C   UNL     1      -1.160   1.235   0.001  1.00  0.00     0.003 A 
ENDROOT
BRANCH   4   7
HETATM    7  O   UNL     1       2.267   0.021   0.016  1.00  0.00    -0.361 OA
HETATM    8  H   UNL     1       2.593  -0.894  -0.013  1.00  0.00     0.217 HD
ENDBRANCH   4   7
TORSDOF 1
